195
XYZ
Si           -1.776879130    17.096234710     2.970811530
H            -2.528909540    16.060727340     3.817176340
H            -1.314779140    18.203002760     3.899808830
Si            0.256322550    16.052231630     2.216435560
H             1.074095090    16.161343960     3.486095950
O             0.174299670    14.316337530     1.866535280
Si           -0.161800590    13.779159170     0.234493730
H             0.872520290    12.763053900    -0.160792890
Si            1.009785310    17.155546040     0.243670470
H             0.519257600    18.583187160     0.245600810
Si           -0.236913700    15.705245320    -1.169760550
H            -1.655393000    16.217350420    -1.363537880
H             0.359360850    15.348646550    -2.516715270
N            -0.243363580     1.993466740     0.135639880
Si           -1.828288030     1.125704640     0.179151330
H            -1.768589570    -0.361133750     0.035015940
N            -3.319446930     1.996724840     0.216329570
Si           -2.835085720     3.694542790     0.322982850
Si           -3.516606150     5.853147340     0.206902260
O            -5.014740240     6.419677290     0.169962370
N            -2.048560290     6.917515810     0.222962980
H            -2.318050350     7.978103200     0.225650970
Si           -0.282258360     6.606689060     0.216722090
N             0.680707200     8.016634800     0.230999910
H             0.332717470     9.091632300     0.196738460
H             1.728975930     7.883554660     0.184565490
N             0.506681670     5.069296980     0.219100520
Si           -0.589563160     3.753866950     0.222768450
N            -1.785976800    12.798733740     0.223620570
Si           -3.354837540    13.640757810     0.214698310
H            -3.100113310    15.102902740     0.018102770
Si           -5.235398070    12.500975330     0.116007170
H            -6.603330840    13.097862190     0.256375940
Si           -4.619302580    10.347012650     0.219765160
N            -5.756814360     9.054354500     0.220652130
H            -5.484603090     7.996935960     0.177227310
H            -6.783253130     9.278567330     0.170522240
N            -2.948461010     9.908868620     0.238714900
Si           -1.628840030    11.009453680     0.239935680
O            -0.088466490    10.580287850     0.170385530
O            -1.584007530    -2.515054120    -1.276907430
Si           -0.372300970    -2.012820560    -2.449434200
H            -0.970214430    -0.942785330    -3.344028100
H            -0.000290270    -3.208505530    -3.314578100
Si            1.697958520    -1.257119060    -1.497273440
H             2.642448330    -1.560782370    -2.635838830
O             1.846224510     0.517710920    -1.271545090
Si            1.466920430     1.191212090     0.279491680
H             2.288753330     2.429559190     0.509371730
Si            2.210836450    -2.260621830     0.613370400
H             1.588060060    -3.638603760     0.764448190
Si            1.236198090    -0.534413360     1.906705890
H            -0.265313800    -0.608372800     2.123507920
H             1.848789320    -0.174485370     3.229132200
O            -2.906928600    17.699500060     1.784890210
O            -4.312862490    18.647292240     3.821274270
P            -4.101662090    18.967738750     2.095525240
O            -3.434384050    20.380553440     1.872369150
O            -5.449949990    18.736462210     1.280529560
O             2.726221820    17.090427390    -0.085269920
O             3.958684030    -2.169040640     0.771891320
P             4.382818290    -2.276119910     2.524569870
O             5.801860600    -2.944838730     2.634564130
O             3.085889030    -2.773960770     3.309130540
H            -2.375688890    -2.949318840    -1.699359060
H             2.995163000    17.675172900    -0.846471480
Si           -7.224325360    15.359066630     6.935009770
H            -7.218711610    14.054406730     7.736914600
H            -7.615336090    16.487768630     7.858618130
Si           -4.950971060    15.781229340     6.253079090
H            -4.315467450    16.223168620     7.564493600
O            -4.137972860    14.229330020     5.947662490
Si           -3.925198500    13.568227560     4.359044470
H            -2.468200470    13.359663880     4.068903450
Si           -5.197885860    17.179800140     4.286485150
H            -6.655440320    17.572719610     4.357938110
Si           -5.091100970    15.164091210     2.993471280
H            -6.515351120    14.662805380     2.802826780
H            -4.489514830    15.268505440     1.615958690
N             2.841295430     3.944338530     4.297616390
Si            2.050180660     2.327548270     4.391800110
H             2.975009960     1.158228190     4.392188620
N             0.326599620     2.185199360     4.429965960
Si           -0.255349310     3.856947200     4.425944110
Si           -2.046741970     5.227205110     4.511548330
O            -3.606843420     4.858939950     4.504631950
N            -1.446895830     6.934192130     4.415724060
H            -2.289694830     7.632672970     4.420990860
Si            0.179508410     7.691198060     4.411658670
N             0.142705330     9.388177760     4.511418870
H            -0.786825700    10.055107970     4.425010470
H             1.063349360     9.890948330     4.421103120
N             1.711031880     6.895825390     4.372051560
Si            1.550725400     5.188511760     4.414720680
N            -4.623241090    11.805299900     4.394777810
Si           -6.396688280    11.592123630     4.445448130
H            -7.031654710    12.929271300     4.225855310
Si           -7.324734420     9.596254760     4.321392470
H            -8.775702960     9.282667170     4.547840480
Si           -5.583298350     8.181705690     4.460458910
N            -5.786393060     6.472339290     4.481835210
H            -4.942463040     5.778903110     4.497450950
H            -6.752460550     6.052548370     4.435242190
N            -3.961419290     8.787533510     4.472527800
Si           -3.467983540    10.432178180     4.429068070
O            -1.938098970    10.928803120     4.334827770
O             4.403143550    -0.523218360     2.886343790
Si            5.101938980     0.555576090     1.686590760
H             3.983839520     1.024559300     0.767393590
H             6.162401960    -0.153463630     0.872494460
Si            6.302688010     2.439915870     2.596632480
H             7.297030900     2.784024070     1.510328440
O             5.455512590     3.987007860     2.892408930
Si            4.699337560     4.318927410     4.414505660
H             4.577383320     5.811634310     4.505517510
Si            7.243211190     1.885914720     4.713300810
H             7.572941980     0.430522230     4.845978390
Si            5.485591940     2.747443890     6.040837940
H             4.307789760     1.792037310     6.119883810
H             5.723553020     3.277839280     7.416788640
O            -8.454291800    15.095865520     5.692982430
P           -10.178557430    15.394280870     5.968565740
O           -10.559345200    16.913255130     5.779617880
O           -11.256222830    14.489958200     5.189983780
O             8.625198590     2.948683350     4.933884310
P             8.986405790     3.170092640     6.635947900
O            10.550615160     3.384825190     6.799091880
O             8.275556150     2.002920250     7.473987450
Si          -10.614168620    10.786550250    10.846175350
H            -9.867014090     9.721501310    11.636620480
H           -11.528851070    11.604512270    11.732221310
Si           -9.037554050    12.489050600    10.174127930
H            -8.890431290    13.277669540    11.462213210
O            -7.396621810    11.884733730     9.857629380
Si           -6.959368960    11.282216780     8.289145250
H            -5.646465540    11.876588220     7.883663340
Si          -10.086550290    13.407892260     8.219764290
H           -11.533804350    12.998091160     8.255855380
Si           -8.851327830    11.835289290     6.927801480
H            -9.684376340    10.581398100     6.713758750
H            -8.528863730    12.356098040     5.552030000
N             4.066056790     7.507529460     8.222765440
Si            4.363353500     5.723063100     8.281645380
H             5.796353170     5.303011960     8.220679420
N             3.042876530     4.603547240     8.280731510
Si            1.597478370     5.622589310     8.149824350
Si           -0.648639000     5.735858820     8.327361680
O            -1.672686450     4.511873930     8.329341790
N            -1.179430340     7.463948960     8.282397440
H            -2.268651060     7.534254020     8.306809070
Si           -0.282026840     9.014944360     8.268300160
N            -1.278259370    10.390855970     8.328641880
H            -2.389899700    10.342058900     8.333679630
H            -0.830295320    11.345813890     8.313596240
N             1.430220520     9.230652330     8.271150530
Si            2.291544870     7.758839980     8.205137410
N            -6.643223900     9.410583400     8.406003670
Si           -7.968239420     8.195678390     8.408146560
H            -9.330951110     8.847561290     8.415475400
Si           -7.537114110     6.042116020     8.380627620
H            -8.571057190     4.955875790     8.404667460
Si           -5.290251950     5.877644930     8.357387950
N            -4.433395570     4.381603310     8.379995860
H            -3.345941740     4.338546090     8.330835640
H            -4.936143940     3.457592920     8.363915860
N            -4.337341170     7.320020020     8.358074800
Si           -4.904834250     8.937340540     8.361167140
O            -3.959569140    10.234432110     8.329407520
H           -13.069275780     8.131469650    11.812105910
O             7.839982800     4.679670780     6.799641890
Si            7.868542920     5.962365130     5.616016500
H             6.708529840     5.730569840     4.665930170
H             9.156438840     5.998864120     4.828714750
Si            7.739627310     8.210989110     6.505568600
H             8.353245870     9.031710850     5.388120860
O             6.162873050     9.018171790     6.801836880
Si            5.391443510     8.860027770     8.341698310
H             4.535966870    10.083179680     8.531854850
Si            8.841569630     8.306094490     8.628606070
H             9.950611900     7.287396590     8.758281390
Si            6.913696800     8.039742860     9.968667950
H             6.515806210     6.587803100    10.116481650
H             6.776364880     8.753048390    11.291952080
O           -11.612636030     9.978532510     9.606582120
O           -12.938965780     9.105544230    11.641441440
P           -13.121448990     9.359684590     9.954277970
O           -14.170960070    10.496133820     9.690227660
O           -13.377708250     8.069093500     9.098012240
O           -10.121029380    15.090663650     7.650045530
O             9.330562240     9.975625800     8.840817500
P             9.580775780    10.394538510    10.488335890
O            10.820054430    11.361617910    10.624413680
O             9.679830510     9.026041150    11.301868010
O             8.015314170    11.104369210    10.793045890
H             8.012329560    11.970348710    10.289400550
