15
XYZ
H             2.217622320    -5.112794520     0.000000000
N             1.295011370    -4.598965830     0.000000000
Si           -0.299040470    -5.426823720     0.000000000
H            -0.246749750    -6.930130120     0.000000000
N            -1.724234010    -4.483682190     0.000000000
Si           -1.160061980    -2.765425660     0.000000000
Si           -1.478528900    -0.566379910     0.000000000
N            -3.003399620     0.308308530     0.000000000
H            -3.038262940     1.361795100     0.000000000
H            -3.940243560    -0.172552150     0.000000000
N            -0.079274140     0.456777890     0.000000000
Si            1.570942030    -0.024297200     0.000000000
H             2.543690790     1.124740140     0.000000000
N             2.324547040    -1.593589380     0.000000000
Si            1.054985970    -2.780425890     0.000000000
