15
XYZ
N            -1.208649190    11.045263540     0.000000000
N            -2.157169660    13.203223500     0.000000000
N             0.053284320    14.465721050     0.000000000
N             2.092621320    12.942163660     0.000000000
N             1.832844540    10.524434910     0.000000000
C            -0.135900000    11.998574000     0.000000000
C            -0.710641290    13.287114660     0.000000000
C             1.262324420    11.826065170     0.000000000
C            -2.408234900    11.858017800     0.000000000
C             1.412746870    14.178750930     0.000000000
H            -1.048567360    10.015136680     0.000000000
H            -3.421397030    11.444214740     0.000000000
H             2.084974510    15.043834880     0.000000000
H             2.904749000    10.513557150     0.000000000
H             1.109729960     9.733322120     0.000000000
