16
XYZ
O             0.175018050    13.994961350     0.000000000
N            -2.144493130    11.885372650     0.000000000
N             1.626295800    12.070925020     0.000000000
N             0.800500570     9.721614430     0.000000000
N            -1.711298250     9.587248430     0.000000000
N             3.154913220    10.214118560     0.000000000
C            -0.718000000    11.732759000     0.000000000
C            -0.482998780    10.337754180     0.000000000
C             0.294835730    12.755062950     0.000000000
C             1.799481520    10.647173300     0.000000000
C            -2.672194320    10.573184630     0.000000000
H            -2.676246350    12.764796270     0.000000000
H             2.480533420    12.664007130     0.000000000
H            -3.746386710    10.423900940     0.000000000
H             3.255665010     9.146546130     0.000000000
H             3.880762060    10.999776270     0.000000000
