29
Properties=species:S:1:pos:R:3 XYZ=T pbc="F F F"
O        0.89499391       3.93962743       0.00000000
N       -3.11142040       0.86067020       0.00000000
N        1.96858488       1.21081697       0.00000000
N        1.01996570      -1.79345982       0.00000000
N       -2.11919273      -1.99118873       0.00000000
N        3.82538597      -1.07588459       0.00000000
Si      -1.30586761       1.01306632       0.00000000
Si      -0.55937368      -1.05926110       0.00000000
Si       0.49324909       2.38732630       0.00000000
Si       2.17336823      -0.53969473       0.00000000
Si      -3.47599946      -0.80524044       0.00000008
H        2.86459403       1.79153918       0.00000000
H       -4.83748549      -1.43239859       0.00000000
H        4.03501822      -2.10638793       0.00000000
H        4.66096981      -0.44684999       0.00000000
H       -2.23901898      -3.04469802       0.00000000
Si       4.44414743       4.76840516       0.00000000
Si       6.31310692       6.02804879       0.00000000
Si       5.85417454       2.02666694       0.00000000
Si       7.92176726       4.53325816       0.00000000
N        4.50367738       3.08345270       0.00000000
N        2.81414823       5.39846539      -0.00000000
N        7.49806341       2.81775735      -0.00000000
H        6.59347062       7.49827131      -0.00000000
H        9.41717864       4.75211070      -0.00000000
H        2.56968924       6.41693134      -0.00000000
H        1.98740705       4.74161726      -0.00000000
O        5.91345030       0.44422491       0.00000000
H        8.26971900       2.09078999       0.00000000
