29
XYZ
H             6.502784920    -4.915001360     1.980043530
N             5.803545740    -4.251818810     1.637754970
C             4.424354270    -4.608248820     1.639136760
H             4.225972570    -5.609268300     1.992056720
N             3.590359050    -3.626171400     1.199828350
C             4.530000000    -2.553000000     0.900000000
C             4.242010850    -1.233457450     0.412468450
O             3.112897810    -0.716984760     0.142471710
N             5.455247910    -0.441239070     0.237275660
H             5.323067780     0.542719680    -0.118126690
C             6.770046910    -0.896848500     0.513204730
N             7.831758940     0.007998460     0.298994520
H             7.652321960     0.963169770    -0.206612100
H             8.746224210    -0.477082450     0.538112000
N             7.063059890    -2.163386980     0.996732000
C             5.883396240    -2.906706930     1.160266500
H             6.785268810     4.885740290    -1.950814150
N             5.883594010     4.403208120    -1.702275810
C             4.533126340     4.893699880    -1.763816260
H             4.216545240     5.891420980    -2.120591900
C             3.504800890     4.076646740    -1.360120820
H             2.476669490     4.438481000    -1.414428470
C             3.765890040     2.737097890    -0.889592990
N             2.718880620     1.896809940    -0.521744460
H             2.972522440     0.833509290    -0.246703560
H             1.759603380     2.331008290    -0.599700760
N             5.063150740     2.233133210    -0.782589480
C             6.154944810     3.049032120    -1.163261000
O             7.354662090     2.680645830    -1.069818380
