37
Properties=species:S:1:pos:R:3:occupancy:R:1:bfactor:R:1:residuenames:S:1:atomtypes:S:1:residuenumbers:I:1 pbc="F F F"
O      -10.30114053      15.67623482      -0.30870257       0.00000000       0.00000000 0 0        0
Si      -9.03350058      15.02190247       1.00564280       0.00000000       0.00000000 0 0        0
H       -9.95504058      14.24824947       1.91607780       0.00000000       0.00000000 0 0        0
H       -8.71086458      16.36277347       1.64559580       0.00000000       0.00000000 0 0        0
Si      -6.99665958      13.99653847       0.39637680       0.00000000       0.00000000 0 0        0
H       -6.04417258      14.07250447       1.55702480       0.00000000       0.00000000 0 0        0
O       -7.11252258      12.31270047      -0.06108420       0.00000000       0.00000000 0 0        0
Si      -7.58011358      11.81417147      -1.68526020       0.00000000       0.00000000 0 0        0
H       -6.57685558      10.81398547      -2.21012820       0.00000000       0.00000000 0 0        0
H       -8.89067958      11.07822447      -1.58279420       0.00000000       0.00000000 0 0        0
Si      -6.42734958      15.17763147      -1.55903520       0.00000000       0.00000000 0 0        0
H       -6.84599858      16.62840847      -1.49420420       0.00000000       0.00000000 0 0        0
Si      -7.66629658      13.78440747      -3.00740820       0.00000000       0.00000000 0 0        0
H       -9.08158558      14.25372247      -3.19793220       0.00000000       0.00000000 0 0        0
H       -7.02165058      13.63129047      -4.36437020       0.00000000       0.00000000 0 0        0
O       -4.71376258      15.04218647      -1.85425320       0.00000000       0.00000000 0 0        0
H       -4.44766458      15.22613947      -2.79379720       0.00000000       0.00000000 0 0        0
O      -11.62136231      16.58325730       1.57134591       1.00000000       0.00000000 DC O3'        5
P      -11.34236231      16.88725730       0.02534591       1.00000000       0.00000000 DC P        6
O      -10.73536231      18.23025730      -0.11565409       1.00000000       0.00000000 DC OP1        6
O      -12.57736231      16.65425730      -0.75665409       1.00000000       0.00000000 DC OP2        6
O      -17.39111474      14.20745076       2.64383343       0.00000000       0.00000000 0 0        0
Si     -16.37336985      14.89356230       4.38179831       0.00000000       0.00000000 0 0        0
H      -17.11200162      14.00092621       5.34838547       0.00000000       0.00000000 0 0        0
H      -16.88875577      16.31681496       4.52426970       0.00000000       0.00000000 0 0        0
Si     -14.01903297      14.95205714       4.53982959       0.00000000       0.00000000 0 0        0
H      -13.62898730      15.78351729       5.73005834       0.00000000       0.00000000 0 0        0
O      -13.24133824      13.39679183       4.72515618       0.00000000       0.00000000 0 0        0
Si     -12.89009590      12.35593906       3.34734105       0.00000000       0.00000000 0 0        0
H      -11.44367446      11.92329894       3.40277214       0.00000000       0.00000000 0 0        0
H      -13.70876881      11.10012872       3.49705935       0.00000000       0.00000000 0 0        0
Si     -13.41160225      15.74787163       2.40899927       0.00000000       0.00000000 0 0        0
H      -14.41044421      16.74190727       1.86271011       0.00000000       0.00000000 0 0        0
Si     -13.38087778      13.61575774       1.39559241       0.00000000       0.00000000 0 0        0
H      -14.71174577      13.22765490       0.81441644       0.00000000       0.00000000 0 0        0
H      -12.32999664      13.49592566       0.31779453       0.00000000       0.00000000 0 0        0
H      -18.50523942      14.54773430       2.59312268       0.00000000       0.00000000 0 0        0
