635
XYZ
Si           13.093603000    22.986277000     6.314840000
H            12.341572000    21.950769000     7.161204000
H            13.555703000    24.093045000     7.243837000
Si           15.126805000    21.942274000     5.560464000
H            15.944577000    22.051386000     6.830124000
O            15.044782000    20.206380000     5.210563000
Si           14.708681000    19.669201000     3.578522000
H            15.743002000    18.653096000     3.183235000
Si           15.880267000    23.045588000     3.587698000
H            15.389740000    24.473229000     3.589629000
Si           14.633568000    21.595287000     2.174267000
H            13.215089000    22.107392000     1.980490000
H            15.229843000    21.238689000     0.827313000
N            14.627118000     7.883509000     3.479668000
Si           13.042194000     7.015747000     3.523179000
H            13.101892000     5.528908000     3.379044000
N            11.551035000     7.886767000     3.560358000
Si           12.035396000     9.584585000     3.667011000
Si           11.353876000    11.743189000     3.550930000
O             9.855742000    12.309719000     3.513990000
N            12.821922000    12.807558000     3.566991000
H            12.552432000    13.868145000     3.569679000
Si           14.588224000    12.496731000     3.560750000
N            15.551189000    13.906677000     3.575028000
H            15.203199000    14.981674000     3.540766000
H            16.599458000    13.773597000     3.528593000
N            15.377164000    10.959339000     3.563129000
Si           14.280919000     9.643909000     3.566796000
N            13.084505000    18.688776000     3.567649000
Si           11.515644000    19.530800000     3.558726000
H            11.770369000    20.992945000     3.362131000
Si            9.635084000    18.391017000     3.460035000
H             8.267151000    18.987904000     3.600404000
Si           10.251179000    16.237055000     3.563793000
N             9.113668000    14.944396000     3.564680000
H             9.385879000    13.886978000     3.521255000
H             8.087229000    15.168609000     3.514550000
N            11.922021000    15.798911000     3.582743000
Si           13.241642000    16.899496000     3.583964000
O            14.782016000    16.470330000     3.514414000
O            13.286474000     3.374988000     2.067121000
Si           14.498181000     3.877221000     0.894594000
H            13.900268000     4.947257000     0.000000000
H            14.870192000     2.681536000     0.029450000
Si           16.568441000     4.632923000     1.846755000
H            17.512930000     4.329260000     0.708189000
O            16.716707000     6.407753000     2.072483000
Si           16.337402000     7.081254000     3.623520000
H            17.159235000     8.319601000     3.853400000
Si           17.081318000     3.629420000     3.957398000
H            16.458542000     2.251438000     4.108476000
Si           16.106680000     5.355629000     5.250734000
H            14.605168000     5.281669000     5.467536000
H            16.719271000     5.715557000     6.573160000
O            11.963553000    23.589542000     5.128918000
O            10.557620000    24.537334000     7.165302000
P            10.768820000    24.857781000     5.439553000
O            11.436098000    26.270595000     5.216397000
O             9.420532000    24.626504000     4.624558000
O            17.596704000    22.980469000     3.258758000
O            18.829166000     3.721001000     4.115919000
P            19.253300000     3.613922000     5.868598000
O            20.672343000     2.945203000     5.978592000
O            17.956371000     3.116081000     6.653159000
H            12.494793000     2.940723000     1.644669000
H            17.865645000    23.565215000     2.497557000
Si            7.646157000    21.249109000    10.279038000
H             7.651770000    19.944449000    11.080943000
H             7.255146000    22.377811000    11.202646000
Si            9.919511000    21.671271000     9.597107000
H            10.555015000    22.113211000    10.908522000
O            10.732509000    20.119372000     9.291690000
Si           10.945284000    19.458270000     7.703072000
H            12.402282000    19.249706000     7.412931000
Si            9.672596000    23.069842000     7.630513000
H             8.215042000    23.462762000     7.701966000
Si            9.779381000    21.054133000     6.337499000
H             8.355131000    20.552847000     6.146855000
H            10.380967000    21.158547000     4.959987000
N            17.711777000     9.834381000     7.641644000
Si           16.920663000     8.217590000     7.735828000
H            17.845492000     7.048270000     7.736217000
N            15.197082000     8.075241000     7.773994000
Si           14.615133000     9.746989000     7.769972000
Si           12.823740000    11.117247000     7.855576000
O            11.263639000    10.748982000     7.848660000
N            13.423586000    12.824234000     7.759752000
H            12.580787000    13.522715000     7.765019000
Si           15.049990000    13.581240000     7.755687000
N            15.013187000    15.278220000     7.855447000
H            14.083656000    15.945150000     7.769038000
H            15.933831000    15.780990000     7.765131000
N            16.581514000    12.785867000     7.716080000
Si           16.421207000    11.078554000     7.758749000
N            10.247241000    17.695342000     7.738806000
Si            8.473794000    17.482166000     7.789476000
H             7.838827000    18.819313000     7.569883000
Si            7.545748000    15.486297000     7.665420000
H             6.094779000    15.172709000     7.891868000
Si            9.287184000    14.071748000     7.804487000
N             9.084089000    12.362381000     7.825863000
H             9.928019000    11.668945000     7.841479000
H             8.118021000    11.942590000     7.779270000
N            10.909063000    14.677576000     7.816556000
Si           11.402498000    16.322220000     7.773096000
O            12.932383000    16.818845000     7.678856000
O            19.273626000     5.366824000     6.230372000
Si           19.972421000     6.445618000     5.030619000
H            18.854322000     6.914601000     4.111422000
H            21.032884000     5.736578000     4.216522000
Si           21.173170000     8.329958000     5.940660000
H            22.167513000     8.674066000     4.854356000
O            20.325995000     9.877050000     6.236437000
Si           19.569820000    10.208969000     7.758534000
H            19.447865000    11.701676000     7.849546000
Si           22.113693000     7.775957000     8.057329000
H            22.443424000     6.320564000     8.190006000
Si           20.356074000     8.637486000     9.384866000
H            19.178272000     7.682079000     9.463912000
H            20.594035000     9.167881000    10.760817000
O             6.416190000    20.985908000     9.037010000
P             4.691925000    21.284323000     9.312594000
O             4.311137000    22.803297000     9.123646000
O             3.614259000    20.380000000     8.534012000
O            23.495681000     8.838725000     8.277912000
P            23.856888000     9.060135000     9.979976000
O            25.421097000     9.274867000    10.143120000
O            23.146038000     7.892962000    10.818015000
Si            4.256313000    16.676592000    14.190203000
H             5.003468000    15.611543000    14.980648000
H             3.341631000    17.494554000    15.076249000
Si            5.832928000    18.379093000    13.518156000
H             5.980051000    19.167712000    14.806241000
O             7.473860000    17.774776000    13.201657000
Si            7.911113000    17.172259000    11.633173000
H             9.224016000    17.766630000    11.227691000
Si            4.783932000    19.297934000    11.563792000
H             3.336678000    18.888133000    11.599883000
Si            6.019154000    17.725331000    10.271829000
H             5.186106000    16.471440000    10.057787000
H             6.341618000    18.246140000     8.896058000
N            18.936539000    13.397571000    11.566793000
Si           19.233836000    11.613105000    11.625673000
H            20.666835000    11.193054000    11.564707000
N            17.913359000    10.493589000    11.624760000
Si           16.467960000    11.512631000    11.493852000
Si           14.221843000    11.625901000    11.671390000
O            13.197796000    10.401916000    11.673370000
N            13.691052000    13.353991000    11.626425000
H            12.601831000    13.424296000    11.650837000
Si           14.588455000    14.904986000    11.612328000
N            13.592223000    16.280898000    11.672670000
H            12.480582000    16.232101000    11.677708000
H            14.040187000    17.235856000    11.657624000
N            16.300703000    15.120694000    11.615179000
Si           17.162027000    13.648882000    11.549165000
N             8.227258000    15.300625000    11.750032000
Si            6.902243000    14.085720000    11.752175000
H             5.539531000    14.737603000    11.759503000
Si            7.333368000    11.932158000    11.724656000
H             6.299425000    10.845918000    11.748695000
Si            9.580230000    11.767687000    11.701416000
N            10.437086000    10.271645000    11.724024000
H            11.524540000    10.228588000    11.674864000
H             9.934338000     9.347635000    11.707944000
N            10.533141000    13.210062000    11.702103000
Si            9.965648000    14.827383000    11.705195000
O            10.910913000    16.124474000    11.673436000
O            22.710465000    10.569713000    10.143670000
Si           22.739025000    11.852407000     8.960044000
H            21.579012000    11.620612000     8.009958000
H            24.026921000    11.888906000     8.172743000
Si           22.610109000    14.101031000     9.849597000
H            23.223728000    14.921753000     8.732149000
O            21.033355000    14.908214000    10.145865000
Si           20.261926000    14.750070000    11.685726000
H            19.406449000    15.973222000    11.875883000
Si           23.712052000    14.196136000    11.972634000
H            24.821094000    13.177439000    12.102309000
Si           21.784179000    13.929785000    13.312696000
H            21.386288000    12.477845000    13.460510000
H            21.646847000    14.643090000    14.635980000
O             3.257846000    15.868575000    12.950610000
P             1.749033000    15.249727000    13.298306000
O             0.699522000    16.386176000    13.034256000
O             1.492774000    13.959135000    12.442040000
O             4.749453000    20.980706000    10.994074000
O            24.201044000    15.865668000    12.184845000
P            24.451258000    16.284581000    13.832364000
O            25.690536000    17.251660000    13.968442000
O            24.550313000    14.916083000    14.645896000
Si            3.698290000    10.309493000    18.183687000
H             4.917556000     9.973303000    19.052320000
H             2.488429000    10.382831000    19.096028000
Si            3.993958000    12.562348000    17.389860000
H             3.595623000    13.317571000    18.640325000
O             5.657651000    13.072331000    17.051440000
Si            6.298218000    12.909126000    15.430292000
H             6.904523000    14.220853000    15.017609000
Si            2.724913000    12.855178000    15.394719000
H             1.551051000    11.906072000    15.399743000
Si            4.531990000    12.152960000    14.017483000
H             4.538144000    10.641449000    13.852610000
H             4.680502000    12.809398000    12.659534000
N            17.402066000    16.861657000    15.398166000
Si           18.758702000    15.670259000    15.481831000
H            20.137283000    16.232134000    15.344586000
N            18.449479000    13.972118000    15.547500000
Si           16.687148000    13.848507000    15.633963000
Si           14.893218000    12.467700000    15.521247000
O            14.873450000    10.865735000    15.514649000
N            13.391026000    13.483184000    15.498665000
H            12.486507000    12.867299000    15.501531000
Si           13.079401000    15.248809000    15.454699000
N            11.425156000    15.671541000    15.439710000
H            10.534403000    14.976272000    15.407310000
H            11.192470000    16.701015000    15.370615000
N            14.254331000    16.515892000    15.447925000
Si           15.865092000    15.935960000    15.483310000
N             7.774835000    11.718346000    15.461084000
Si            7.520010000     9.956242000    15.482558000
H             6.061517000     9.691703000    15.272278000
Si            9.235136000     8.577417000    15.432157000
H             9.140064000     7.090779000    15.599746000
Si           11.047226000     9.894935000    15.533989000
N            12.650731000     9.268392000    15.567390000
H            13.551864000     9.884971000    15.523720000
H            12.791557000     8.226413000    15.538958000
N            10.887546000    11.614903000    15.518039000
Si            9.402250000    12.478272000    15.483736000
O             9.279865000    14.070905000    15.382173000
O            22.765900000    17.370427000    13.976966000
Si           21.243854000    18.061414000    12.838709000
H            20.454216000    17.116608000    11.951811000
H            22.251323000    18.803351000    11.972070000
Si           19.813862000    19.766127000    13.740233000
H            19.790932000    20.735586000    12.582551000
O            18.092528000    19.302690000    13.952820000
Si           17.569449000    18.745603000    15.508208000
H            16.121933000    19.098551000    15.712861000
Si           20.554473000    20.631512000    15.844391000
H            22.060276000    20.520612000    16.016920000
Si           19.248999000    19.150133000    17.149644000
H            19.828986000    17.768906000    17.400321000
H            18.684441000    19.627811000    18.456061000
O             3.532896000     9.018832000    17.019990000
O             3.096792000     7.412685000    19.082010000
P             2.745587000     7.468545000    17.350238000
O             1.192763000     7.607964000    17.104464000
O             3.434240000     6.265372000    16.566835000
O             2.100314000    14.444266000    14.939714000
O            19.868914000    22.245311000    15.963340000
P            19.802100000    22.713882000    17.706674000
O            19.943993000    24.277888000    17.788636000
O            20.703192000    21.680684000    18.522726000
Si            7.142002000     5.861518000    22.278032000
H             8.355766000     6.328340000    23.086781000
H             6.203221000     5.125757000    23.203913000
Si            5.976933000     7.839908000    21.543197000
H             5.327621000     8.310852000    22.837643000
O             7.161214000     9.128677000    21.228252000
Si            7.730049000     9.524352000    19.638943000
H             7.431697000    10.958988000    19.317494000
Si            4.772327000     7.092020000    19.574937000
H             4.900437000     5.589629000    19.676753000
Si            6.646494000     7.857079000    18.290978000
H             7.606837000     6.686816000    18.134944000
H             6.360381000     8.360244000    16.899822000
N            14.461135000    19.171916000    19.479427000
Si           16.249612000    18.983456000    19.600151000
H            17.032249000    20.252277000    19.586326000
N            16.972062000    17.413576000    19.677574000
Si           15.600147000    16.294974000    19.677345000
Si           14.923813000    14.144937000    19.795381000
O            15.803245000    12.805054000    19.825328000
N            13.115983000    14.122820000    19.676792000
H            12.747668000    13.092214000    19.697030000
Si           11.848737000    15.391824000    19.632246000
N            10.265434000    14.778737000    19.723459000
H             9.957589000    13.675687000    19.654157000
H             9.479444000    15.469990000    19.609843000
N            12.073110000    17.101967000    19.562831000
Si           13.731678000    17.536125000    19.618467000
N             9.624782000     9.472199000    19.699958000
Si           10.430672000     7.879934000    19.791386000
H             9.394056000     6.821849000    19.578668000
Si           12.624963000     7.688314000    19.699072000
H            13.412722000     6.436717000    19.959584000
Si           13.357115000     9.810858000    19.807006000
N            15.032511000    10.205113000    19.842321000
H            15.395432000    11.235454000    19.842907000
H            15.757809000     9.440187000    19.819622000
N            12.233268000    11.127626000    19.779523000
Si           10.519723000    11.027860000    19.716003000
O             9.531299000    12.293520000    19.584894000
O            18.143364000    22.140344000    18.058249000
Si           16.906145000    22.404966000    16.837271000
H            16.859432000    21.176555000    15.940701000
H            17.220337000    23.628229000    16.003615000
Si           14.713369000    22.905947000    17.709888000
H            14.064034000    23.701684000    16.599776000
O            13.545412000    21.586528000    18.015986000
Si           13.472506000    20.791650000    19.552737000
H            12.110371000    20.168264000    19.638230000
Si           14.885335000    24.019475000    19.808047000
H            16.138516000    24.829576000    19.941339000
Si           14.659587000    22.098887000    21.169734000
H            15.958957000    21.320634000    21.280317000
H            14.062222000    22.167320000    22.537088000
O             7.825677000     4.772271000    21.065245000
P             8.131146000     3.055528000    21.377612000
O             6.836393000     2.174638000    21.188854000
O             9.359268000     2.337501000    20.628276000
O            13.411445000    24.958561000    19.991864000
P            13.058118000    25.254694000    21.684193000
O            12.319551000    26.653932000    21.811186000
O            14.387137000    25.002067000    22.544309000
O            12.029397000    23.664442000    21.865131000
O             8.375244000     3.245537000    23.059034000
Si           12.596933000     3.667656000    26.188212000
H            13.348964000     4.703163000    27.034577000
H            12.134833000     2.560888000    27.117209000
Si           10.563731000     4.711659000    25.433836000
H             9.745959000     4.602547000    26.703496000
O            10.645754000     6.447553000    25.083936000
Si           10.981855000     6.984732000    23.451894000
H             9.947534000     8.000837000    23.056607000
Si            9.810269000     3.608345000    23.461071000
H            10.300796000     2.180704000    23.463001000
Si           11.056968000     5.058645000    22.047640000
H            12.475447000     4.546540000    21.853862000
H            10.460693000     5.415244000    20.700685000
N            11.063418000    18.770424000    23.353040000
Si           12.648342000    19.638186000    23.396552000
H            12.588644000    21.125025000    23.252416000
N            14.139501000    18.767166000    23.433730000
Si           13.655140000    17.069348000    23.540383000
Si           14.336660000    14.910743000    23.424302000
O            15.834794000    14.344213000    23.387363000
N            12.868614000    13.846375000    23.440363000
H            13.138104000    12.785788000    23.443051000
Si           11.102312000    14.157202000    23.434122000
N            10.139347000    12.747256000    23.448400000
H            10.487337000    11.672258000    23.414139000
H             9.091078000    12.880336000    23.401966000
N            10.313372000    15.694594000    23.436501000
Si           11.409617000    17.010024000    23.440169000
N            12.606031000     7.965157000    23.441021000
Si           14.174892000     7.123133000    23.432099000
H            13.920167000     5.660988000    23.235503000
Si           16.055452000     8.262915000    23.333407000
H            17.423385000     7.666029000    23.473776000
Si           15.439357000    10.416878000    23.437165000
N            16.576868000    11.709536000    23.438052000
H            16.304657000    12.766955000    23.394628000
H            17.603307000    11.485323000    23.387922000
N            13.768515000    10.855022000    23.456115000
Si           12.448894000     9.754437000    23.457336000
O            10.908520000    10.183603000    23.387786000
Si           11.192355000    22.776711000    20.767966000
H            11.790268000    21.706676000    19.873372000
Si            9.122095000    22.021010000    21.720127000
H             8.177606000    22.324673000    20.581561000
O             8.973829000    20.246180000    21.945855000
Si            9.353134000    19.572679000    23.496892000
H             8.531301000    18.334332000    23.726772000
Si            8.609218000    23.024513000    23.830771000
H             9.231994000    24.402495000    23.981848000
Si            9.583856000    21.298304000    25.124106000
H            11.085368000    21.372264000    25.340908000
H             8.971265000    20.938376000    26.446532000
O            13.726983000     3.064391000    25.002290000
O            15.132916000     2.116599000    27.038674000
P            14.921716000     1.796152000    25.312925000
O            14.254438000     0.383337000    25.089769000
O            16.270004000     2.027429000    24.497930000
O             6.861370000    22.932931000    23.989292000
P             6.437236000    23.040011000    25.741970000
O             5.018193000    23.708730000    25.851964000
O             7.734165000    23.537852000    26.526531000
Si           18.044379000     5.404824000    30.152410000
H            18.038766000     6.709484000    30.954315000
H            18.435390000     4.276122000    31.076018000
Si           15.771025000     4.982661000    29.470479000
H            15.135521000     4.540722000    30.781894000
O            14.958027000     6.534561000    29.165063000
Si           14.745252000     7.195663000    27.576445000
H            13.288254000     7.404227000    27.286304000
Si           16.017940000     3.584091000    27.503885000
H            17.475494000     3.191171000    27.575338000
Si           15.911155000     5.599800000    26.210872000
H            17.335405000     6.101085000    26.020227000
H            15.309569000     5.495385000    24.833359000
N             7.978759000    16.819552000    27.515017000
Si            8.769873000    18.436343000    27.609200000
H             7.845044000    19.605663000    27.609589000
N            10.493454000    18.578691000    27.647366000
Si           11.075403000    16.906944000    27.643344000
Si           12.866796000    15.536686000    27.728949000
O            14.426897000    15.904951000    27.722032000
N            12.266950000    13.829699000    27.633124000
H            13.109749000    13.131218000    27.638391000
Si           10.640546000    13.072693000    27.629059000
N            10.677349000    11.375713000    27.728819000
H            11.606880000    10.708783000    27.642411000
H             9.756705000    10.872942000    27.638503000
N             9.109022000    13.868065000    27.589452000
Si            9.269329000    15.575379000    27.632121000
N            15.443295000     8.958591000    27.612178000
Si           17.216742000     9.171767000    27.662848000
H            17.851709000     7.834619000    27.443256000
Si           18.144788000    11.167636000    27.538793000
H            19.595757000    11.481224000    27.765241000
Si           16.403352000    12.582185000    27.677859000
N            16.606447000    14.291551000    27.699235000
H            15.762517000    14.984988000    27.714851000
H            17.572515000    14.711342000    27.652642000
N            14.781473000    11.976357000    27.689928000
Si           14.288038000    10.331713000    27.646468000
O            12.758153000     9.835088000    27.552228000
O             6.416910000    21.287109000    26.103744000
Si            5.718115000    20.208315000    24.903991000
H             6.836214000    19.739331000    23.984794000
H             4.657652000    20.917354000    24.089895000
Si            4.517366000    18.323975000    25.814033000
H             3.523023000    17.979867000    24.727729000
O             5.364541000    16.776883000    26.109809000
Si            6.120716000    16.444963000    27.631906000
H             6.242671000    14.952256000    27.722918000
Si            3.576843000    18.877976000    27.930701000
H             3.247112000    20.333369000    28.063379000
Si            5.334462000    18.016447000    29.258238000
H             6.512264000    18.971853000    29.337284000
H             5.096501000    17.486051000    30.634189000
O            19.274346000     5.668025000    28.910383000
P            20.998611000     5.369610000    29.185966000
O            21.379399000     3.850636000    28.997018000
O            22.076277000     6.273933000    28.407384000
O             2.194855000    17.815207000    28.151285000
P             1.833648000    17.593798000    29.853348000
O             0.269439000    17.379066000    30.016492000
O             2.544498000    18.760971000    30.691388000
Si           21.434223000     9.977341000    34.063576000
H            20.687068000    11.042389000    34.854021000
H            22.348905000     9.159379000    34.949622000
Si           19.857608000     8.274840000    33.391528000
H            19.710485000     7.486221000    34.679613000
O            18.216676000     8.879157000    33.075030000
Si           17.779423000     9.481674000    31.506545000
H            16.466520000     8.887303000    31.101064000
Si           20.906604000     7.355999000    31.437165000
H            22.353858000     7.765800000    31.473256000
Si           19.671382000     8.928601000    30.145202000
H            20.504430000    10.182493000    29.931159000
H            19.348918000     8.407793000    28.769430000
N             6.753997000    13.256361000    31.440166000
Si            6.456700000    15.040828000    31.499046000
H             5.023701000    15.460879000    31.438080000
N             7.777177000    16.160344000    31.498132000
Si            9.222576000    15.141301000    31.367225000
Si           11.468693000    15.028032000    31.544762000
O            12.492740000    16.252017000    31.546742000
N            11.999484000    13.299942000    31.499798000
H            13.088705000    13.229637000    31.524209000
Si           11.102081000    11.748946000    31.485700000
N            12.098313000    10.373035000    31.546042000
H            13.209954000    10.421832000    31.551080000
H            11.650349000     9.418077000    31.530996000
N             9.389833000    11.533238000    31.488551000
Si            8.528509000    13.005051000    31.422538000
N            17.463278000    11.353307000    31.623404000
Si           18.788293000    12.568212000    31.625547000
H            20.151005000    11.916329000    31.632876000
Si           18.357168000    14.721775000    31.598028000
H            19.391111000    15.808015000    31.622068000
Si           16.110306000    14.886246000    31.574788000
N            15.253450000    16.382287000    31.597396000
H            14.165996000    16.425345000    31.548236000
H            15.756198000    17.306298000    31.581316000
N            15.157395000    13.443871000    31.575475000
Si           15.724888000    11.826550000    31.578567000
O            14.779623000    10.529459000    31.546808000
O             2.980071000    16.084220000    30.017042000
Si            2.951511000    14.801526000    28.833417000
H             4.111524000    15.033321000    27.883330000
H             1.663615000    14.765027000    28.046115000
Si            3.080427000    12.552902000    29.722969000
H             2.466808000    11.732180000    28.605521000
O             4.657181000    11.745719000    30.019237000
Si            5.428610000    11.903863000    31.559099000
H             6.284087000    10.680711000    31.749255000
Si            1.978484000    12.457796000    31.846006000
H             0.869442000    13.476494000    31.975682000
Si            3.906357000    12.724148000    33.186068000
H             4.304248000    14.176088000    33.333882000
H             4.043689000    12.010842000    34.509352000
O            22.432690000    10.785358000    32.823982000
P            23.941503000    11.404206000    33.171678000
O            24.991014000    10.267757000    32.907628000
O            24.197762000    12.694797000    32.315412000
O            20.941083000     5.673227000    30.867446000
O             1.489492000    10.788265000    32.058218000
P             1.239278000    10.369352000    33.705736000
O            -0.000000000     9.402273000    33.841814000
O             1.140223000    11.737850000    34.519268000
Si           21.992246000    16.344440000    38.057059000
H            20.772980000    16.680630000    38.925692000
H            23.202107000    16.271102000    38.969400000
Si           21.696578000    14.091585000    37.263232000
H            22.094913000    13.336361000    38.513697000
O            20.032885000    13.581602000    36.924812000
Si           19.392318000    13.744807000    35.303664000
H            18.786013000    12.433080000    34.890981000
Si           22.965623000    13.798754000    35.268092000
H            24.139485000    14.747861000    35.273115000
Si           21.158546000    14.500973000    33.890855000
H            21.152392000    16.012484000    33.725982000
H            21.010034000    13.844535000    32.532906000
N             8.288470000     9.792276000    35.271538000
Si            6.931834000    10.983674000    35.355204000
H             5.553253000    10.421799000    35.217958000
N             7.241057000    12.681815000    35.420872000
Si            9.003388000    12.805426000    35.507335000
Si           10.797318000    14.186233000    35.394619000
O            10.817086000    15.788198000    35.388021000
N            12.299510000    13.170749000    35.372038000
H            13.204029000    13.786634000    35.374904000
Si           12.611135000    11.405124000    35.328071000
N            14.265380000    10.982392000    35.313082000
H            15.156133000    11.677661000    35.280682000
H            14.498066000     9.952918000    35.243987000
N            11.436205000    10.138041000    35.321297000
Si            9.825444000    10.717972000    35.356683000
N            17.915701000    14.935587000    35.334456000
Si           18.170526000    16.697691000    35.355930000
H            19.629019000    16.962230000    35.145650000
Si           16.455400000    18.076515000    35.305529000
H            16.550472000    19.563153000    35.473119000
Si           14.643310000    16.758997000    35.407361000
N            13.039805000    17.385541000    35.440763000
H            12.138672000    16.768961000    35.397092000
H            12.898979000    18.427520000    35.412330000
N            14.802990000    15.039030000    35.391411000
Si           16.288286000    14.175661000    35.357108000
O            16.410671000    12.583028000    35.255545000
O             2.924636000     9.283506000    33.850338000
Si            4.446682000     8.592519000    32.712081000
H             5.236320000     9.537325000    31.825184000
H             3.439213000     7.850582000    31.845442000
Si            5.876674000     6.887806000    33.613605000
H             5.899604000     5.918347000    32.455924000
O             7.598008000     7.351243000    33.826193000
Si            8.121087000     7.908330000    35.381581000
H             9.568603000     7.555382000    35.586233000
Si            5.136063000     6.022421000    35.717763000
H             3.630260000     6.133321000    35.890292000
Si            6.441537000     7.503800000    37.023016000
H             5.861550000     8.885027000    37.273694000
H             7.006095000     7.026122000    38.329433000
O            22.157640000    17.635100000    36.893362000
O            22.593744000    19.241247000    38.955382000
P            22.944949000    19.185388000    37.223610000
O            24.497773000    19.045969000    36.977836000
O            22.256296000    20.388561000    36.440208000
O            23.590221000    12.209667000    34.813086000
O             5.821622000     4.408622000    35.836712000
P             5.888436000     3.940051000    37.580046000
O             5.746543000     2.376045000    37.662008000
O             4.987344000     4.973249000    38.396098000
Si           18.548534000    20.792414000    42.151404000
H            17.334770000    20.325593000    42.960153000
H            19.487315000    21.528175000    43.077285000
Si           19.713603000    18.814025000    41.416570000
H            20.362915000    18.343081000    42.711015000
O            18.529322000    17.525256000    41.101624000
Si           17.960487000    17.129581000    39.512315000
H            18.258839000    15.694945000    39.190867000
Si           20.918209000    19.561913000    39.448310000
H            20.790099000    21.064303000    39.550125000
Si           19.044042000    18.796854000    38.164350000
H            18.083699000    19.967117000    38.008316000
H            19.330155000    18.293689000    36.773195000
N            11.229401000     7.482016000    39.352799000
Si            9.440924000     7.670477000    39.473523000
H             8.658287000     6.401656000    39.459699000
N             8.718474000     9.240357000    39.550947000
Si           10.090389000    10.358958000    39.550717000
Si           10.766723000    12.508996000    39.668754000
O             9.887291000    13.848879000    39.698701000
N            12.574553000    12.531113000    39.550164000
H            12.942868000    13.561718000    39.570403000
Si           13.841799000    11.262109000    39.505618000
N            15.425102000    11.875196000    39.596831000
H            15.732947000    12.978246000    39.527529000
H            16.211092000    11.183942000    39.483215000
N            13.617426000     9.551966000    39.436204000
Si           11.958858000     9.117808000    39.491840000
N            16.065754000    17.181734000    39.573330000
Si           15.259864000    18.773999000    39.664758000
H            16.296480000    19.832084000    39.452040000
Si           13.065573000    18.965618000    39.572444000
H            12.277814000    20.217216000    39.832956000
Si           12.333421000    16.843075000    39.680378000
N            10.658024000    16.448820000    39.715693000
H            10.295104000    15.418478000    39.716279000
H             9.932727000    17.213745000    39.692994000
N            13.457268000    15.526307000    39.652895000
Si           15.170813000    15.626073000    39.589375000
O            16.159237000    14.360413000    39.458266000
O             7.547172000     4.513588000    37.931621000
Si            8.784391000     4.248967000    36.710644000
H             8.831104000     5.477378000    35.814073000
H             8.470199000     3.025703000    35.876988000
Si           10.977167000     3.747986000    37.583261000
H            11.626502000     2.952248000    36.473148000
O            12.145124000     5.067404000    37.889358000
Si           12.218030000     5.862282000    39.426109000
H            13.580165000     6.485668000    39.511602000
Si           10.805201000     2.634458000    39.681419000
H             9.552020000     1.824357000    39.814711000
Si           11.030949000     4.555045000    41.043107000
H             9.731579000     5.333299000    41.153689000
H            11.628314000     4.486613000    42.410460000
O            17.864859000    21.881662000    40.938617000
P            17.559390000    23.598404000    41.250984000
O            18.854143000    24.479295000    41.062227000
O            16.331268000    24.316432000    40.501649000
O            12.279091000     1.695371000    39.865236000
P            12.632418000     1.399239000    41.557566000
O            13.370985000    -0.000000000    41.684558000
O            11.303399000     1.651866000    42.417681000
H            15.933740510    22.895697460    43.588648110
O            13.661139000     2.989491000    41.738504000
H            14.572159780     3.347956000    40.575047260
O            17.315292000    23.408396000    42.932406000
