56
XYZ
H            -7.883000000     2.116000000     8.855000000
O            -7.312000000     2.824000000     8.548000000
C            -6.696000000     3.693000000     9.516000000
H            -6.074000000     3.130000000    10.211000000
H            -7.492000000     4.195000000    10.066000000
C            -5.843000000     4.732000000     8.813000000
H            -5.606000000     5.579000000     9.457000000
O            -4.589000000     4.096000000     8.583000000
C            -4.359000000     3.843000000     7.212000000
H            -3.495000000     4.407000000     6.862000000
H            -3.910000000     2.425000000     7.130000000
C            -6.323000000     5.157000000     7.425000000
H            -7.407000000     5.127000000     7.314000000
C            -5.688000000     4.107000000     6.513000000
H            -6.471000000     3.516000000     6.038000000
H            -5.093000000     4.603000000     5.746000000
O            -5.839000000     6.444000000     7.067000000
P            -5.792000000     6.854000000     5.521000000
O            -6.090000000     8.297000000     5.380000000
O            -6.654000000     5.939000000     4.739000000
O            -4.255000000     6.582000000     5.168000000
C            -3.246000000     6.924000000     6.136000000
H            -3.073000000     6.103000000     6.832000000
H            -3.595000000     7.798000000     6.685000000
C            -1.946000000     7.263000000     5.433000000
H            -1.256000000     7.809000000     6.077000000
O            -1.305000000     6.011000000     5.203000000
C            -1.268000000     5.671000000     3.832000000
H            -0.237000000     5.620000000     3.482000000
H            -1.738000000     4.260000000     3.750000000
C            -2.084000000     7.888000000     4.045000000
H            -2.978000000     8.501000000     3.934000000
C            -2.188000000     6.666000000     3.133000000
H            -3.169000000     6.649000000     2.658000000
H            -1.415000000     6.717000000     2.367000000
O            -0.936000000     8.645000000     3.687000000
P            -0.657000000     8.949000000     2.141000000
O            -0.050000000    10.292000000     2.000000000
O            -1.892000000     8.716000000     1.359000000
O             0.427000000     7.826000000     1.788000000
C             1.443000000     7.510000000     2.756000000
H             1.100000000     6.745000000     3.453000000
H             1.674000000     8.423000000     3.305000000
C             2.695000000     7.020000000     2.053000000
H             3.574000000     7.056000000     2.696000000
O             2.477000000     5.630000000     1.823000000
C             2.308000000     5.333000000     0.452000000
H             3.112000000     4.685000000     0.102000000
H             1.098000000     4.468000000     0.370000000
C             2.950000000     7.607000000     0.665000000
H             2.586000000     8.629000000     0.554000000
C             2.148000000     6.679000000    -0.247000000
H             1.344000000     7.241000000    -0.722000000
H             2.804000000     6.267000000    -1.014000000
O             4.324000000     7.545000000     0.307000000
H             4.534000000     7.903000000    -0.559000000
