16
XYZ
H             5.519931470    -6.758647140     0.000000000
N             4.494180710    -6.512924760     0.000000000
Si            3.192996840    -7.754778450     0.000000000
H             3.679342500    -9.162425280     0.000000000
N             1.560997470    -7.269057630     0.000000000
Si            1.608623860    -5.466912020     0.000000000
Si            0.405344430    -3.590652430     0.000000000
O            -1.137260930    -3.201411500     0.000000000
N             1.647383520    -2.180501790     0.000000000
H             1.137688140    -1.246033350     0.000000000
Si            3.403494230    -2.084351810     0.000000000
N             4.038321780    -0.462324440     0.000000000
H             3.503052870     0.442787920     0.000000000
H             5.082470920    -0.354794140     0.000000000
N             4.564788830    -3.333814280     0.000000000
Si            3.720198460    -4.863812760     0.000000000
