   69

Si     -1.845935   17.002037    2.967630
H      -2.609991   15.956102    3.774192
H      -1.307570   18.108358    3.862086
Si      0.235825   15.979344    2.218906
H       1.043921   16.040190    3.510236
O       0.172313   14.233482    1.841513
Si     -0.179067   13.750725    0.208191
H       0.870876   12.761940   -0.176780
Si      1.052009   17.110621    0.254237
H       0.523271   18.539497    0.263043
Si     -0.230734   15.688316   -1.174840
H      -1.652620   16.212163   -1.317134
H       0.347293   15.350648   -2.543951
N      -0.229531    2.028292    0.139293
Si     -1.826508    1.176197    0.158071
H      -1.827603   -0.259755   -0.263156
N      -3.278845    2.034751    0.483220
Si     -2.818057    3.658997    1.083192
Si     -3.480340    5.776163    0.397630
O      -4.959483    6.381583    0.263566
N      -2.045164    6.890155    0.409526
H      -2.349809    7.934928    0.351141
Si     -0.284360    6.595314    0.349111
N       0.694069    7.986402    0.277318
H       0.347689    9.055158    0.264040
H       1.740815    7.847061    0.263078
N       0.493888    5.053212    0.310976
Si     -0.601050    3.755671    0.486418
N      -1.801603   12.769533    0.191662
Si     -3.418697   13.521787    0.253543
H      -3.221308   15.006113    0.439433
Si     -5.270286   12.517014   -0.600230
H      -6.354564   13.021507    0.351436
Si     -4.623718   10.407266    0.134432
N      -5.742151    9.091105    0.277691
H      -5.433306    8.049634    0.323221
H      -6.788678    9.228399    0.263167
N      -2.967017    9.892377    0.200026
Si     -1.628827   10.967028    0.219504
O      -0.088561   10.519688    0.263366
H      -5.221259   18.369449    3.950199
O      -1.566199   -2.499720   -1.231301
Si     -0.377909   -1.976866   -2.425136
H      -1.043235   -0.949085   -3.335850
H       0.000456   -3.190493   -3.249696
Si      1.722860   -1.243134   -1.502118
H       2.696978   -1.551581   -2.632233
O       1.912615    0.514889   -1.227153
Si      1.479988    1.208193    0.297847
H       2.350723    2.414837    0.526308
Si      2.172207   -2.239055    0.625978
H       1.567763   -3.620308    0.790015
Si      1.258316   -0.491807    1.945271
H      -0.260421   -0.603776    2.107037
H       1.912926   -0.086617    3.246713
O      -2.957266   17.675979    1.757458
O      -4.268777   18.626219    3.773035
P      -4.088365   18.886355    2.086728
O      -3.394720   20.266110    1.844203
O      -5.394672   18.712107    1.232293
O       2.781853   17.075647   -0.087873
O       3.915195   -2.157512    0.793504
P       4.360298   -2.251976    2.481722
O       5.744570   -2.932953    2.633008
O       3.135098   -2.758177    3.332759
O       4.527574   -0.601653    2.807876
H       5.309460   -0.259762    2.283731
H      -2.350100   -2.932207   -1.667322
H       3.032103   17.676987   -0.840464
