   15

H       1.870894    5.305648   -0.085761
N       1.002113    4.700461   -0.011818
Si     -0.608860    5.494932    0.019138
H      -0.341284    6.982591   -0.170147
Si     -2.395360    4.464217    0.914955
Si     -4.362067    5.393759   -0.043632
H      -4.678633    4.951464   -1.453805
H      -5.528983    5.039765    0.855001
H      -4.168691    6.896465   -0.000365
Si     -1.868124    2.309901    0.192660
O      -2.722326    0.975069    0.000256
N      -0.075809    2.015051    0.111726
H       0.086797    0.971362    0.000160
Si      1.409519    2.953446    0.037253
O       2.890881    2.388452   -0.000072
