17
XYZ
H             3.684057020     3.736217460     3.447227740
O             4.358927780     4.428511360     3.410654860
C             5.639051430     3.790086520     3.144319040
H             5.627155820     3.262191320     2.173948720
H             5.906088620     3.049450520     3.914488320
C             6.713000000     4.867144000     3.130000000
H             7.707923910     4.402209330     3.164420050
O             6.587354990     5.581379940     1.846936510
C             6.949552460     7.001246500     1.993626170
H             7.808942160     7.225137060     1.296543330
H             6.092968130     7.565298510     1.581279520
C             6.635948070     5.944441490     4.235047980
H             5.565592010     6.234141940     4.211423270
C             7.407098500     7.071721560     3.508718710
H             7.496436200     7.951172440     4.184080730
H             8.390941800     6.678901970     3.318132500
H             7.095235110     5.677753410     5.300223140
