15
XYZ
H            17.242291520    11.438884040     9.854683000
N            16.314673100    11.946352510     9.854683000
Si           14.723042700    11.114009900     9.854683000
H            14.779137100     9.618864990     9.854683000
N            13.283021810    12.033110750     9.854683000
Si           13.835541960    13.754848040     9.854682990
Si           13.489342380    15.945712390     9.854683010
N            11.952980190    16.798198710     9.854683000
H            11.905344200    17.850573110     9.854683000
H            11.022238220    16.305746630     9.854683000
N            14.878005650    16.981520520     9.854683000
Si           16.531917950    16.518552190     9.854682990
H            17.487914990    17.677179260     9.854683000
N            17.308063940    14.960690030     9.854683000
Si           16.051835250    13.760987270     9.854683000
