13
XYZ
Si           13.315792540    15.037234520     9.854683000
Si           13.159388900    12.788846310     9.854683000
Si           16.395221040    15.186984330     9.854683000
Si           15.258245730    12.143100900     9.854683000
N            14.804769150    15.828156300     9.854683000
N            11.955144770    16.133825120     9.854683000
N            16.532061090    13.367789600     9.854683000
H            12.026320700    11.810932960     9.854683000
H            15.816419560    10.738610380     9.854683000
H            10.950897890    15.836299840     9.854683000
H            12.110621350    17.178228050     9.854683000
O            17.795293920    15.926871030     9.854682970
H            17.547461080    13.062999940     9.854683000
