13
XYZ
Si           -1.513114460     0.541716520     0.000000000
Si           -1.669518100    -1.706671690     0.000000000
Si            1.566314040     0.691466330     0.000000000
Si            0.429338730    -2.352417100     0.000000000
N            -0.024137850     1.332638300     0.000000000   #
N            -2.873762230     1.638307120     0.000000000
N             1.703154090    -1.127728400     0.000000000
H            -2.802586300    -2.684585040     0.000000000
H             0.987512560    -3.756907620     0.000000000
H            -3.878009110     1.340781840     0.000000000
H            -2.718285650     2.682710050     0.000000000
O             2.966386920     1.431353030     0.000000000
H             2.718554080    -1.432518060     0.000000000
