16
XYZ
O             0.894993910    18.456275430     9.854683000
N            -3.111420400    15.377318200     9.854683000
N             1.968584880    15.727464970     9.854683000
N             1.019965700    12.723188180     9.854683000
N            -2.119192730    12.525459270     9.854683000
N             3.825385970    13.440763410     9.854683000
Si           -1.305867610    15.529714320     9.854683000
Si           -0.559373680    13.457386900     9.854683000
Si            0.493249090    16.903974300     9.854683000
Si            2.173368230    13.976953270     9.854683000
Si           -3.475999460    13.711407560     9.854682920
H             2.864594030    16.308187180     9.854683000
H            -4.837485490    13.084249410     9.854683000
H             4.035018220    12.410260070     9.854683000
H             4.660969810    14.069798010     9.854683000
H            -2.239018980    11.471949980     9.854683000
