16
XYZ
O             0.894993910     3.939627430     0.000000000
N            -3.111420400     0.860670200     0.000000000
N             1.968584880     1.210816970     0.000000000  #
N             1.019965700    -1.793459820     0.000000000
N            -2.119192730    -1.991188730     0.000000000
N             3.825385970    -1.075884590     0.000000000
Si           -1.305867610     1.013066320     0.000000000
Si           -0.559373680    -1.059261100     0.000000000
Si            0.493249090     2.387326300     0.000000000
Si            2.173368230    -0.539694730     0.000000000
Si           -3.475999460    -0.805240440     0.000000080
H             2.864594030     1.791539180     0.000000000   #
H            -4.837485490    -1.432398590     0.000000000
H             4.035018220    -2.106387930     0.000000000
H             4.660969810    -0.446849990     0.000000000
H            -2.239018980    -3.044698020     0.000000000
