321
XYZ
Si           -1.739500000    16.886774640     2.945676380
H            -2.407893060    15.821240650     3.778675000
H            -1.338415690    18.071058200     3.780301270
Si            0.322190250    16.022101020     2.176831750
H             1.161114940    16.092230440     3.427357530
O             0.177612240    14.294920330     1.841318940
Si           -0.176915990    13.742385490     0.229704090
H             0.803203530    12.677824740    -0.175179220
Si            1.050643510    17.107689590     0.203154420
H             0.533877040    18.521114390     0.175537220
Si           -0.223299940    15.667752280    -1.180263840
H            -1.606244480    16.270682310    -1.318002750
H             0.356523600    15.371862750    -2.547558370
N            -0.317029400     2.086603610     0.200440070
Si           -1.899266840     1.339107000     0.720381790
H            -2.052071670    -0.092391780     0.351128830
N            -3.164551130     2.257695970     1.387876360
Si           -2.596005150     3.954012850     1.547871590
Si           -3.486280000     5.860393730     0.508502900
O            -4.991842160     6.382227950     0.264081680
N            -2.055562000     6.947130850     0.265800070
H            -2.320687180     8.003860680     0.262218870
Si           -0.302608890     6.628355730     0.197566640
N             0.685087180     8.001480750     0.360445970
H             0.356244380     9.079597080     0.350827880
H             1.723475610     7.831392690     0.269970160
N             0.490061100     5.103941580    -0.038299440
Si           -0.596540260     3.854492400     0.380633240
N            -1.808824570    12.762632770     0.284919900
Si           -3.413153810    13.524537850     0.269872120
H            -3.211727430    15.014565620     0.263296030
Si           -5.312224940    12.468672130     0.924699110
H            -6.422287430    12.945323130    -0.000357000
Si           -4.610831070    10.361948650     0.297232400
N            -5.742942290     9.056768430     0.255365880
H            -5.460707870     8.005960990     0.177580050
H            -6.779406550     9.258607440     0.263013370
N            -2.951271660     9.874320620     0.321155220
Si           -1.627857590    10.964369690     0.318540670
O            -0.090543530    10.517325600     0.264147990
O            -1.604981020    -2.516447760    -1.231539940
Si           -0.385136700    -1.979648570    -2.373423290
H            -0.981226890    -0.898227860    -3.251185770
H             0.000632390    -3.147224260    -3.251685030
Si            1.724952590    -1.223136240    -1.484248630
H             2.676137860    -1.439467960    -2.636609110
O             1.870407690     0.538292240    -1.227086460
Si            1.398617900     1.267710110     0.269263570
H             2.230030490     2.516404770     0.439557710
Si            2.303819850    -2.163593760     0.620625440
H             1.873181810    -3.596156220     0.791011220
Si            1.219859250    -0.502903260     1.880654010
H            -0.270252910    -0.718923310     2.020303950
H             1.784402270    -0.268073500     3.250601820
O            -2.945396840    17.442944330     1.763156450
P            -4.082288840    18.565562850     2.496590970
O            -3.480489820    20.038332880     2.551310660
O            -5.443519530    18.518504110     1.754000400
O             2.763816930    17.080532260    -0.088171700
O             4.013150870    -1.888689320     0.877388470
P             4.522772170    -1.959832740     2.503770320
O             5.886041920    -2.695405740     2.635388480
O             3.302909350    -2.514568730     3.336802650
O             4.728238810    -0.269739240     2.724754930
H            -2.381941590    -2.960938300    -1.667436680
H             3.033751310    17.441764610    -0.969160690
Si           -8.015417750    14.600875210     7.014283780
H            -7.760748020    13.302603500     7.732647780
H            -8.475709220    15.643485610     7.995326950
Si           -5.880596650    15.296932020     6.238908400
H            -5.261879220    15.911883730     7.468998290
O            -4.908592540    13.846415000     5.883116720
Si           -4.889479100    13.232597890     4.255773910
H            -3.477545220    13.125332580     3.777436330
Si           -6.082198220    16.667801620     4.295902550
H            -7.315834700    17.530555310     4.305150950
Si           -6.196857010    14.735813320     2.929460890
H            -7.586278790    14.203449390     2.722927560
H            -5.619298990    15.103011800     1.580917470
N             2.674612310     4.151355870     3.981125980
Si            2.061821700     2.475850750     4.102581760
H             3.122850180     1.436631970     4.040742850
N             0.371227450     2.173218330     4.258892010
Si           -0.418242890     3.732990000     4.592878480
Si           -2.286864770     4.885428880     3.767680960
O            -3.748528390     4.496143220     4.304965970
N            -1.797645890     6.670566900     3.886445530
H            -2.677789050     7.281880010     4.041407440
Si           -0.305988230     7.608471780     3.986848070
N            -0.477659900     9.281414150     4.268398610
H            -1.426137670     9.887535630     4.303764950
H             0.415728140     9.845598330     4.316086780
N             1.301035850     6.947758980     3.910009040
Si            1.255644760     5.247795880     4.062727450
N            -5.462205220    11.427583120     4.344224600
Si           -7.187572360    10.969130270     4.310567720
H            -8.027997170    12.226242620     4.304833220
Si           -7.927058510     8.927605330     4.934728620
H            -9.186934460     8.630287230     4.128904780
Si           -6.050694760     7.748450040     4.293208090
N            -6.055607580     6.018101830     4.332764420
H            -5.156030010     5.392937450     4.301582380
H            -6.958524910     5.484163120     4.216963810
N            -4.481721500     8.478445290     4.321160230
Si           -4.158131500    10.161138970     4.336046030
O            -2.677435180    10.786554680     4.304883950
Si            5.323006170     0.937676140     1.601753840
H             4.105855930     1.348229260     0.789427230
H             6.411572570     0.364119800     0.709878890
Si            6.318877350     2.945483980     2.553378480
H             7.226680360     3.326818700     1.405662660
O             5.264352410     4.401115110     2.725642040
Si            4.466893070     4.650552730     4.229442800
H             4.282063170     6.114995780     4.479945280
Si            7.296629070     2.615156810     4.726571580
H             7.938296260     1.259529340     4.919892350
Si            5.352753890     3.218827870     5.908671840
H             4.281771660     2.156526330     6.062464270
H             5.530548820     3.955734750     7.204594200
O            -9.280131130    14.294685040     5.804547410
P           -10.905262160    14.461963500     6.459724310
O           -11.326431220    15.994803210     6.329464620
O           -11.864239280    13.484386380     5.709346410
O            -4.633045520    17.534316600     3.950215160
O             8.385365130     3.956368910     5.008679070
P             8.815937070     4.266684480     6.653617500
O            10.343729130     4.584605840     6.764421160
O             8.207834490     3.058845270     7.466490380
O             7.851513450     5.662993040     7.026534830
Si          -11.641721490     9.055948970    11.067372340
H           -10.704329190     8.180272160    11.861431700
H           -12.668465620     9.709490110    11.949850130
Si          -10.270129610    10.912761890    10.332831040
H           -10.169947900    11.597777440    11.684148470
O            -8.568380570    10.428883530    10.011871450
Si           -8.177793950    10.039313210     8.360260300
H            -6.960006790    10.789613570     7.906859340
Si          -11.246054760    12.006935940     8.392970920
H           -12.755069330    11.866196340     8.434162230
Si          -10.138812530    10.423630250     7.028063790
H           -10.973098860     9.168268910     6.940273620
H            -9.813333650    10.878464750     5.623145890
N             3.316952940     7.932596060     8.353578570
Si            3.791736090     6.260171520     8.917772260
H             5.173713370     5.843483230     8.522709950
N             2.650851990     5.192848260     9.593194310
Si            1.066031140     6.036861320     9.741105420
Si           -0.914942310     5.450488140     8.607954190
O            -1.693618840     4.048610540     8.433831930
N            -1.773526330     7.015005270     8.294708380
H            -2.857502360     6.922119990     8.344161940
Si           -1.174995610     8.688537280     8.214812120
N            -2.353626200     9.899778730     8.396977470
H            -3.476830630     9.797360140     8.433561380
H            -1.964496650    10.880177800     8.345669520
N             0.469148770     9.187953640     7.969291370
Si            1.523013410     7.967810040     8.531101240
N            -7.496906890     8.266747780     8.456310760
Si           -8.542331100     6.834517750     8.459577460
H            -9.990289740     7.281439080     8.433881700
Si           -7.789275380     4.803789780     9.140583620
H            -8.474708600     3.775653330     8.257662720
Si           -5.577388870     5.113113790     8.493449000
N            -4.471190860     3.781844610     8.455292210
H            -3.390661450     3.866920730     8.346484650
H            -4.818330340     2.786677580     8.433754130
N            -4.838645850     6.678118450     8.494797750
Si           -5.690330880     8.166900690     8.477781280
O            -4.995201590     9.616859590     8.434147880
Si            7.512404990     6.974437240     5.909536800
H             6.421654260     6.472516680     5.005107730
H             8.743296740     7.282374300     5.095164150
Si            6.944132910     9.189155020     6.724781110
H             7.405139790     9.980377550     5.532782320
O             5.264050600     9.794934830     6.943433340
Si            4.444505270     9.465854970     8.439985040
H             3.390181910    10.517009540     8.694994270
Si            8.000941640     9.587484790     8.800706550
H             9.277726180     8.809529190     8.961898090
Si            6.109374390     8.968870090    10.078334130
H             5.976956080     7.460191380    10.192230120
H             5.887059420     9.617954140    11.420098650
O           -12.488656050     8.001957930     9.928190740
P           -13.873656150     7.077805170    10.232329290
O           -15.158655390     7.996746080    10.021314720
O           -13.915001870     5.754490140     9.402252810
O           -10.791919620    13.668607020     8.078384970
O             8.205531090    11.325911810     8.965498680
P             8.259550300    11.758884590    10.654188520
O             9.273487750    12.943443430    10.806443460
O             8.647627050    10.434849960    11.503483040
O             6.517216810    12.314006550    10.893666630
Si          -10.632799920     2.531144460    15.217533840
H            -9.277682960     2.518274190    15.900849780
H           -11.687747700     2.246866700    16.253165130
Si          -10.977859200     4.766182440    14.438025020
H           -11.330781160     5.484702920    15.725346040
O            -9.368668660     5.392957060    14.054223880
Si           -8.740308480     5.355584210    12.443547800
H            -8.385265240     6.744441040    12.034522510
Si          -12.375951410     4.888661000    12.442324990
H           -13.382416550     3.773503930    12.475720420
Si          -10.455399110     4.358199000    11.119193760
H           -10.258642630     2.873826210    10.981457470
H           -10.703848040     4.945721250     9.750630970
N             1.522401530    11.211962760    12.239621230
Si            3.061830990    10.312835030    12.392666130
H             4.284590050    11.148524630    12.298867810
N             3.078308210     8.598458910    12.538012030
Si            1.405019170     8.075373400    12.874225870
Si            0.030152040     6.415057060    11.929078410
O             0.087752820     4.943024290    12.562646910
N            -1.677515180     7.176467360    11.909894010
H            -2.409298140     6.384076550    12.036729930
Si           -2.355223520     8.797700120    12.091920830
N            -4.026996110     8.973016010    12.408754710
H            -4.816052710     8.181576600    12.474938140
H            -4.371215490     9.975663120    12.474692320
N            -1.441457590    10.279006130    12.035863670
Si            0.209844740     9.985896050    12.338195380
N            -7.072841390     4.472824490    12.552751640
Si           -6.965159060     2.694848460    12.506555710
H            -8.383646000     2.157384020    12.562922010
Si           -5.056322000     1.587005780    13.034970600
H            -4.995705440     0.361154740    12.124602860
Si           -3.569964410     3.263315280    12.428445230
N            -1.866363900     2.974480020    12.496564780
H            -1.082840410     3.751100230    12.483625480
H            -1.515721420     1.978312220    12.474960340
N            -4.006898290     4.935330520    12.410074670
Si           -5.604256340     5.540462160    12.521073370
O            -5.975501560     7.101163230    12.562875670
Si            5.321441200    13.164649780     9.929829580
H             4.640159090    12.136792930     9.048219050
H             5.977165880    14.204532020     9.049399660
Si            3.389498450    14.507649370    10.810543040
H             3.212232370    15.372774550     9.576437640
O             1.700271740    13.843681440    10.983699690
Si            1.307603900    13.066913680    12.469416540
H            -0.179803630    13.125493570    12.651341300
Si            3.805898690    15.495103300    12.950235180
H             5.262623250    15.822370990    13.178158850
Si            2.866200690    13.708417460    14.149420340
H             3.748315160    12.493780660    14.320229070
H             2.228912510    14.024345750    15.463744600
O           -10.616386620     1.255344640    13.976131590
P           -10.989498490    -0.344982470    14.645534350
O           -12.570516860    -0.537647580    14.500399380
O           -10.169287620    -1.437173640    13.881188130
O           -13.027858040     6.385664150    11.944174070
O             2.675955200    16.811699500    13.183484030
P             2.487492000    17.300696100    14.896693910
O             2.408961550    18.871982000    15.022059230
O             3.563678870    16.454449990    15.721727410
O             0.894065030    16.631733050    15.283829650
Si           -5.818323200    -1.988902910    19.275926740
H            -4.727832470    -1.258691890    20.030969120
H            -6.601796840    -2.877124200    20.207323590
Si           -7.423785810    -0.330090370    18.536016750
H            -8.118872310    -0.090241150    19.856091360
O            -6.690941180     1.254647130    18.183348370
Si           -6.152064570     1.524132950    16.553661310
H            -6.779696110     2.789071190    16.075783100
Si           -8.622732810    -1.112678510    16.605145240
H            -8.742454140    -2.608557780    16.691881290
Si           -6.837529170    -0.348836400    15.242506810
H            -5.709861350    -1.349396880    15.110347100
H            -7.315174710     0.089466220    13.880247960
N            -2.158519760    12.613549860    16.554405920
Si           -0.375694650    12.888051800    16.533661840
H             0.088752660    14.294369040    16.340536070
N             0.711555630    11.558012350    16.660424280
Si           -0.277040860    10.167403800    17.193183860
Si           -0.415118190     7.946244110    16.614867840
O             0.802043300     6.921432860    16.691270560
N            -2.131368190     7.383753390    16.590845020
H            -2.229364680     6.292933510    16.604798060
Si           -3.666450810     8.283421410    16.583963910
N            -5.055522380     7.310963960    16.650764110
H            -5.086054150     6.201726080    16.691625990
H            -5.978536640     7.819608010    16.604292480
N            -3.874683650     9.999719550    16.545060330
Si           -2.406285670    10.845707580    16.726923590
N            -4.300147400     1.887307510    16.675137370
Si           -3.043863030     0.621363070    16.722555360
H            -3.746384760    -0.719152750    16.691742890
Si           -0.939270280     0.994285060    17.495035980
H            -0.089609050     0.179781240    16.516901210
Si           -0.887984230     3.200780290    16.763725500
N             0.614364790     4.049085890    16.679356600
H             0.713841960     5.123358040    16.604308470
H             1.517507920     3.506856250    16.692146300
N            -2.270025070     4.245541620    16.724438240
Si           -3.875570330     3.649770860    16.702819950
O            -5.172876180     4.585948670    16.692147800
H            -3.384644940    -5.223614110    20.393654910
Si           -0.421469720    16.508322400    14.123465610
H            -0.089447210    15.372834980    13.177652370
H            -0.535646670    17.800457420    13.353152590
Si           -2.709765860    16.308104680    14.949175800
H            -3.478912310    16.901456260    13.792443580
O            -3.564818450    14.745773710    15.200109910
Si           -3.477674400    13.955620260    16.726011660
H            -4.727915140    13.125759410    16.868919480
Si           -2.877133740    17.413937290    17.042259730
H            -1.873075620    18.519544310    17.219753660
Si           -2.627642140    15.472588280    18.348615670
H            -1.158674660    15.101652530    18.449717640
H            -3.300997180    15.371591300    19.680835220
O            -4.994649580    -3.056659490    18.101846120
O            -3.926201430    -4.406235190    20.197995250
P            -4.319425780    -4.563869830    18.479964480
O            -5.438296110    -5.661603580    18.187653590
O            -3.037294850    -4.853237720    17.575151910
O           -10.173849200    -0.357018960    16.333600090
O            -4.549247180    17.890891870    17.223337400
P            -4.979753030    18.125103910    18.894062700
O            -6.064241200    19.237602720    19.063176500
O            -3.660265380    18.248291700    19.763638350
O            -5.709015610    16.631572520    19.238693660
H            -6.603757380    16.631594700    18.800261030
