321
Properties=species:S:1:pos:R:3 XYZ=T pbc="F F F"
Si -0.13419050 19.40314653 4.17718137
 H -0.80289583 18.33775087 5.01016745
 H 0.26657751 20.58755770 5.01179585
Si 1.92741617 18.53849138 3.40816536
 H 2.76611226 18.60873282 4.65885737
 O 1.78260843 16.81142061 3.07281254
Si 1.42865544 16.25928597 1.46074370
 H 2.40824608 15.19431390 1.05630889
Si 2.65568390 19.62432625 1.43451408
 H 2.13887146 21.03764650 1.40704669
Si 1.38193500 18.18463438 0.05111816
 H -0.00123706 18.78718286 -0.08650043
 H 1.96153389 17.88837544 -1.31607721
 N 1.28219631 4.59750838 1.44790956
Si -0.29753188 3.85022487 1.97583089
 H -0.44744981 2.42425097 1.58278590
 N -1.54938029 4.76412120 2.67492348
Si -0.98017064 6.46224520 2.85549580
Si -1.89130798 8.37109882 1.79722877
 O -3.38672739 8.89847496 1.49593875
 N -0.46341642 9.45954200 1.53738441
 H -0.71639711 10.51891520 1.49436728
Si 1.28682906 9.13807143 1.46206139
 N 2.27089905 10.51507109 1.59826515
 H 1.95988777 11.59595912 1.58243298
 H 3.30366346 10.33776500 1.49531884
 N 2.08467177 7.61641221 1.23246378
Si 0.99661561 6.36556706 1.64405297
 N -0.20327889 15.28021908 1.51316052
Si -1.80746526 16.04145191 1.49891609
 H -1.60673378 17.53117706 1.49479832
Si -3.70575558 14.98387625 2.15312068
 H -4.81733871 15.46186070 1.23111990
Si -3.00598112 12.87743017 1.52221732
 N -4.13763286 11.57228990 1.48219748
 H -3.85228345 10.52136012 1.40771006
 H -5.17423342 11.77489239 1.49448100
 N -1.34629607 12.39301681 1.53643322
Si -0.02237532 13.48158839 1.54272520
 O 1.51449950 13.03397322 1.49560603
 O 0.00002020 0.00004306 -0.00004146
Si 1.21971341 0.53691326 -1.14197831
 H 0.62377131 1.61827657 -2.01969824
 H 1.60563227 -0.63072670 -2.02018308
Si 3.32946364 1.29437780 -0.25319366
 H 4.28113582 1.07702411 -1.40508637
 O 3.47535048 3.05482104 0.00444676
Si 3.00211072 3.78498995 1.50156000
 H 3.83486503 5.03279666 1.67100207
Si 3.90800064 0.35293157 1.85149763
 H 3.47820377 -1.07968040 2.02251354
Si 2.82539727 2.01408212 3.11171159
 H 1.33478123 1.79750174 3.25177100
 H 3.38919782 2.24856207 4.48212925
 O -1.34039548 19.95944615 2.99465300
 P -2.47678675 21.08239734 3.72727996
 O -1.87547017 22.55486794 3.78280302
 O -3.83850611 21.03499083 2.98551457
 O 4.36882116 19.59703539 1.14332872
 O 5.61813936 0.62779721 2.10889551
 P 6.12774185 0.55856686 3.73437213
 O 7.49095704 -0.17889713 3.86691663
 O 4.90799819 0.00192401 4.56828617
 O 6.33324063 2.24673236 3.95624507
 H -0.77700514 -0.44433660 -0.43592591
 H 4.63875649 19.95826150 0.26233710
Si -6.41049723 17.11726377 8.24589752
 H -6.15573977 15.81908374 8.96415461
 H -6.87070844 18.15999190 9.22682398
Si -4.27550769 17.81292789 7.47058255
 H -3.65687579 18.42838599 8.70048334
 O -3.30359267 16.36289171 7.11459895
Si -3.28419361 15.74883317 5.48708305
 H -1.87248065 15.64185246 5.00893141
Si -4.47710185 19.18421337 5.52732572
 H -5.71081967 20.04704271 5.53664406
Si -4.59129707 17.25127480 4.16072067
 H -5.98122952 16.71996553 3.95444664
 H -4.01428346 17.61954735 2.81240291
 N 4.26398136 6.67792373 5.26688223
Si 3.63295688 5.01835763 5.49604552
 H 4.63975831 3.95246656 5.27291820
 N 1.96307829 4.74031086 5.79617745
Si 1.18514872 6.31928695 6.09791659
Si -0.64724669 7.39450348 5.07765661
 O -2.14324470 7.01266415 5.53633535
 N -0.18528735 9.19123290 5.15980597
 H -1.07279571 9.79869633 5.27323794
Si 1.30315386 10.13515170 5.23928001
 N 1.13299584 11.81039176 5.50486935
 H 0.17896172 12.40469094 5.53562796
 H 2.02042627 12.38629042 5.53304226
 N 2.90776711 9.47209824 5.14243264
Si 2.85979505 7.78858798 5.42256357
 N -3.85777992 13.94460708 5.57003664
Si -5.58302492 13.48586898 5.53744030
 H -6.42304839 14.74280872 5.53634675
Si -6.31949140 11.44342209 6.16210226
 H -7.58200537 11.14679518 5.36039794
Si -4.44703629 10.26528538 5.50678834
 N -4.45010028 8.53501364 5.55938912
 H -3.55021119 7.91003294 5.53185100
 H -5.35346736 8.00061806 5.44849628
 N -2.87947881 10.99669005 5.51123019
Si -2.55354833 12.67806535 5.55272009
 O -1.07255822 13.30309156 5.53634161
Si 6.92753160 3.45466887 2.83242859
 H 5.71080785 3.86473946 2.02087577
 H 8.01669420 2.88043962 1.94149395
Si 7.92225277 5.46125496 3.78390891
 H 8.83162957 5.84333406 2.63722963
 O 6.86895997 6.91760997 3.95733929
Si 6.06777902 7.16645093 5.46167484
 H 5.88733207 8.63160770 5.71137276
Si 8.90236833 5.13098918 5.95616032
 H 9.54340551 3.77593366 6.15137699
Si 6.96013150 5.73566993 7.13878320
 H 5.88666195 4.67309247 7.29383697
 H 7.13554469 6.47197835 8.43599346
 O -7.67513747 16.81118678 7.03605060
 P -9.30006628 16.97828295 7.69156387
 O -9.72143286 18.51128365 7.56096360
 O -10.25923663 16.00090051 6.94085131
 O -3.02809867 20.05078640 5.18170123
 O 9.99035936 6.47286317 6.24016995
 P 10.42111646 6.78283911 7.88475115
 O 11.94872481 7.10110515 7.99591815
 O 9.81282703 5.57534209 8.69799454
 O 9.45647317 8.17952340 8.25803323
Si -10.03723380 11.57243421 12.29870906
 H -9.09936824 10.69678362 13.09288979
 H -11.06350105 12.22599907 13.18138166
Si -8.66489697 13.42911739 11.56425904
 H -8.56494890 14.11426419 12.91563656
 O -6.96337538 12.94537134 11.24337296
Si -6.57136135 12.55422443 9.59218613
 H -5.35485726 13.30598104 9.13837542
Si -9.64073572 14.52286936 9.62420579
 H -11.15000732 14.38268737 9.66564595
Si -8.53258425 12.93918783 8.25968769
 H -9.36811692 11.68474929 8.17176940
 H -8.20829765 13.39493490 6.85466634
 N 4.95311353 10.44950066 9.54266824
Si 5.46372718 8.76248714 10.00579245
 H 6.86696115 8.44837715 9.57934869
 N 4.34269527 7.65286660 10.65700167
Si 2.74959166 8.47825995 10.88637317
Si 0.73792165 7.94494729 9.78310216
 O -0.08862983 6.56475997 9.66499537
 N -0.12294226 9.52484228 9.53403113
 H -1.21071277 9.43448516 9.55731510
Si 0.47931645 11.20033890 9.50600323
 N -0.71278231 12.40323577 9.64765693
 H -1.82001563 12.27814141 9.66795639
 H -0.35854780 13.39546930 9.57760885
 N 2.11885107 11.72828507 9.31475523
Si 3.17049979 10.45572254 9.75201896
 N -5.89120112 10.78055349 9.69226812
Si -6.93725282 9.35136307 9.70194967
 H -8.38527798 9.79786773 9.66539666
Si -6.18847662 7.31597000 10.38180475
 H -6.86960688 6.29225578 9.48919400
Si -3.96875998 7.63062776 9.75321338
 N -2.86572299 6.29784370 9.69322823
 H -1.78561200 6.38361194 9.57833996
 H -3.21337079 5.30314027 9.66528862
 N -3.22873430 9.19378433 9.76208392
Si -4.08139020 10.68330174 9.72707333
 O -3.38995175 12.13322864 9.66565006
Si 9.11744435 9.49165004 7.14081013
 H 8.02670746 8.98905799 6.23668264
 H 10.34831853 9.79890119 6.32665574
Si 8.54897762 11.70751200 7.95660137
 H 9.01025233 12.49696038 6.76412418
 O 6.86942495 12.31171153 8.17464867
Si 6.05412997 11.98817613 9.66997776
 H 4.99507096 13.03340288 9.92672035
Si 9.60544552 12.10339755 10.03350649
 H 10.88274298 11.32603539 10.19338883
Si 7.71323392 11.48532842 11.31063225
 H 7.58192052 9.97659431 11.42360807
 H 7.49211801 12.13451686 12.65173804
 O -10.88358487 10.51845581 11.15961705
 P -12.27214923 9.59785974 11.45403328
 O -13.55402619 10.51360783 11.25268922
 O -12.30987073 8.27082917 10.63366294
 O -9.18692049 16.18510146 9.30987729
 O 9.81053121 13.84241632 10.19701164
 P 9.86360333 14.27565900 11.88507335
 O 10.87846702 15.45990507 12.03795586
 O 10.25263393 12.95139445 12.73496251
 O 8.12223774 14.83050986 12.12516013
Si -9.02747406 5.04527787 16.44927401
 H -7.67262380 5.03477770 17.13238558
 H -10.08279618 4.76337592 17.48469754
Si -9.37015110 7.28094744 15.67104399
 H -9.72580609 8.00122627 16.95678510
 O -7.76367927 7.90949293 15.28580828
Si -7.13122359 7.87250195 13.67730958
 H -6.78018375 9.26108424 13.26597247
Si -10.77249639 7.40762164 13.67550276
 H -11.77726782 6.29008935 13.70714057
Si -8.84402826 6.87582522 12.35066471
 H -8.65370596 5.39042495 12.21299979
 H -9.09898587 7.46221736 10.98229436
 N 3.12942602 13.72928120 13.50831426
Si 4.66923579 12.82852835 13.65333043
 H 5.88949104 13.66481516 13.53056857
 N 4.68115842 11.11604184 13.79386922
Si 3.00604584 10.58439852 14.09338333
Si 1.67551128 8.90986244 13.10535230
 O 1.69284277 7.45984771 13.79395587
 N -0.03483347 9.71430970 13.10562315
 H -0.77501805 8.93646082 13.26006890
Si -0.73195344 11.32239155 13.34946590
 N -2.40753234 11.47184584 13.66861659
 H -3.20971811 10.69594267 13.70678336
 H -2.75621370 12.46632094 13.77920062
 N 0.15762266 12.82028639 13.34594774
Si 1.81237543 12.51196297 13.62048550
 N -5.46667114 6.99053818 13.79817944
Si -5.36045763 5.21276691 13.74398879
 H -6.77864328 4.67391863 13.79438303
Si -3.45418933 4.10086510 14.26840367
 H -3.39067017 2.87756010 13.35608586
Si -1.95896826 5.78286548 13.70417230
 N -0.25677571 5.48963709 13.78463211
 H 0.52580391 6.26785775 13.77677020
 H 0.08951842 4.49480669 13.70673676
 N -2.39813877 7.45225357 13.71963481
Si -3.99661433 8.05755256 13.78417282
 O -4.37066946 9.61768165 13.79439575
Si 6.92610978 15.68131513 11.16123181
 H 6.24515862 14.65327010 10.27970807
 H 7.58217520 16.72103003 10.28090034
Si 4.99435108 17.02367376 12.04200454
 H 4.81723567 17.88925799 10.80797009
 O 3.30524981 16.35999491 12.21536333
Si 2.91305901 15.58686389 13.70561073
 H 1.42519571 15.64214458 13.88285502
Si 5.41171839 18.01218372 14.18146802
 H 6.86776195 18.33895560 14.40964019
Si 4.47312772 16.22781896 15.38228646
 H 5.35317090 15.01047733 15.55170483
 H 3.83391479 16.54094136 16.69547884
 O -9.01138002 3.77184733 15.20759259
 P -9.38531040 2.17030252 15.87652278
 O -10.96558863 1.97886354 15.73190435
 O -8.56423289 1.07929455 15.11266941
 O -11.42259720 8.90191483 13.17590352
 O 4.28095153 19.32821324 14.41498025
 P 4.09197785 19.81700060 16.12778855
 O 4.01396814 21.38846217 16.25356227
 O 5.16866343 18.97096794 16.95321666
 O 2.49906701 19.14823494 16.51531711
Si -4.21309328 0.52740757 20.50752830
 H -3.12282397 1.25781671 21.26247354
 H -4.99680411 -0.36062658 21.43882397
Si -5.81833584 2.18639900 19.76762362
 H -6.51386848 2.42625979 21.08756606
 O -5.08592747 3.77115727 19.41483939
Si -4.54621406 4.04138511 17.78544483
 H -5.17472401 5.30561692 17.30726550
Si -7.01798510 1.40391642 17.83647707
 H -7.13744617 -0.09204384 17.92336509
Si -5.23168763 2.16856403 16.47401944
 H -4.10485882 1.16710213 16.34184052
 H -5.71020771 2.60593082 15.11176055
 N -0.55165361 15.13029399 17.77521710
Si 1.23065864 15.40425387 17.75470219
 H 1.69382774 16.81110921 17.57203026
 N 2.32067366 14.07527610 17.87459943
Si 1.32896145 12.68211799 18.39146816
Si 1.19050418 10.46018215 17.82488680
 O 2.40712710 9.43782192 17.92275916
 N -0.52618479 9.89954110 17.80890625
 H -0.62435820 8.80927400 17.83617023
Si -2.06074971 10.79834891 17.78659095
 N -3.44999431 9.82780273 17.87837046
 H -3.48097351 8.71831789 17.92313309
 H -4.37345923 10.33614493 17.83573139
 N -2.26530924 12.51475032 17.72581337
Si -0.79950843 13.36074505 17.92549143
 N -2.69484601 4.40466437 17.90538381
Si -1.43886284 3.13807124 17.95253408
 H -2.14139452 1.79737701 17.92323508
Si 0.66495161 3.51179174 18.72466959
 H 1.51540655 2.69627080 17.74838831
Si 0.71684307 5.71803304 17.99355739
 N 2.21948066 6.56564942 17.91054503
 H 2.31887551 7.63990128 17.83581465
 H 3.12252136 6.02334902 17.92363957
 N -0.66475619 6.76356577 17.95695561
Si -2.26989132 6.16736078 17.93293475
 O -3.56790161 7.10247278 17.92365068
 H -1.77963688 -2.70711363 21.62525284
Si 1.18322152 19.02473257 15.35477454
 H 1.51554848 17.88935124 14.40915448
 H 1.06935237 20.31696582 14.58465742
Si -1.10502101 18.82448235 16.18063079
 H -1.87391839 19.41796495 15.02393139
 O -1.95984816 17.26231719 16.43157319
Si -1.87134118 16.47079352 17.95619273
 H -3.12280162 15.64222763 18.10039647
Si -1.27204127 19.92989204 18.27386902
 H -0.26810343 21.03599280 18.45125840
Si -1.02252121 17.98771384 19.57981296
 H 0.44638480 17.61814341 19.68123463
 H -1.69599192 17.88807134 20.91227720
 O -3.38964774 -0.54016310 19.33334503
 O -2.32120159 -1.88973684 21.42949327
 P -2.71438853 -2.04739973 19.71155232
 O -3.83329412 -3.14510291 19.41915240
 O -1.43229672 -2.33673949 18.80665123
 O -8.56882975 2.15948529 17.56512348
 O -2.94423978 20.40738813 18.45484095
 P -3.37469071 20.64145348 20.12537416
 O -4.45923180 21.75409737 20.29467697
 O -2.05527352 20.76479665 20.99513657
 O -4.10401695 19.14807452 20.47019276
 H -4.99876228 19.14808989 20.03176154
