29
XYZ
H             1.037114790     3.593453520     0.000000000
N             0.330628060     2.803417340     0.000000000
Si           -1.399658850     3.244781250     0.000000000
H            -1.555438530     4.734773510     0.000000000
Si           -2.922980470     1.685873730     0.000000000
H            -4.406168100     1.928704090     0.000000000
Si           -1.724589610    -0.227402430     0.000000000
N            -2.490615070    -1.760119170     0.000000000
H            -1.900368520    -2.717332200     0.000000000
H            -3.542237390    -1.840579400     0.000000000
N            -0.008389550    -0.172228120     0.000000000
Si            1.066633070     1.158110720     0.000000000
O             2.675306390     1.139300460     0.000000000
H             5.616448300    -7.449539050     0.000000000
N             4.582069540    -7.232037600     0.000000000
Si            3.296663890    -8.492636000     0.000000000
H             3.801175240    -9.903718860     0.000000000
N             1.659342320    -8.013621370     0.000000000
Si            1.680979120    -6.204633980     0.000000000
Si            0.545435210    -4.286361350     0.000000000
O            -1.034314930    -3.944500340     0.000000000
N             1.732269340    -2.877196050     0.000000000
H             1.209573660    -1.929617610     0.000000000
Si            3.508534480    -2.776776010     0.000000000
N             4.136844510    -1.179386080     0.000000000
H             3.542961610    -0.262481010     0.000000000
H             5.183644070    -1.052311970     0.000000000
N             4.632886580    -4.075215960     0.000000000
Si            3.794105010    -5.586340430     0.000000000