   15

H       2.291260   -5.022486    0.574991
N       1.421744   -4.584734    0.158021
Si     -0.163529   -5.396824   -0.059056
H      -0.163399   -6.842995    0.329141
N      -1.466835   -4.537033   -0.708751
Si     -0.854009   -2.925413   -1.409668
Si     -1.073005   -0.912232   -0.238139
N      -2.594723   -0.121143    0.157044
H      -2.609299    0.896999    0.427412
H      -3.521418   -0.608246    0.246300
N       0.176794    0.314629   -0.293583
Si      1.819805   -0.176791   -0.162042
H       2.785300    0.954045    0.000011
N       2.566130   -1.753124   -0.137465
Si      1.238169   -2.852434   -0.373289
