13
XYZ
H             1.075712000     3.829168740     0.000000000
N             0.458861770     2.965294890     0.000000000
Si           -1.293500270     3.249389050     0.000000000
H            -1.651661640     4.704514680     0.000000000
Si           -2.725085400     1.603213150     0.000000000
H            -4.216916420     1.741485420     0.000000000
Si           -1.330005440    -0.146361720     0.000000000
N            -2.013807050    -1.754664290     0.000000000
H            -1.406098670    -2.612958660     0.000000000
H            -3.055713300    -1.917115250     0.000000000
N             0.354667010    -0.014920980     0.000000000
Si            1.380854430     1.374986230     0.000000000
O             2.972837300     1.480164610     0.000000000
